#======================================================================

####################################################################### 
# 
# This file contains crystal structure data downloaded from the 
# Cambridge Structural Database (CSD) hosted by the Cambridge 
# Crystallographic Data Centre (CCDC).
# 
# Full information about CCDC data access policies and citation 
# guidelines are available at http://www.ccdc.cam.ac.uk/access/V1 
# 
# Audit and citation data items may have been added by the CCDC. 
# Please retain this information to preserve the provenance of 
# this file and to allow appropriate attribution of the data. 
# 
#######################################################################
# CRYSTAL DATA

#----------------------------------------------------------------------

data_VESTA_phase_1


_chemical_name_common                  ''
_cell_length_a                         18.69505
_cell_length_b                         18.69505
_cell_length_c                         18.69505
_cell_angle_alpha                      90
_cell_angle_beta                       90
_cell_angle_gamma                      90
_space_group_name_H-M_alt              'P 1'
_space_group_IT_number                 1

loop_
_space_group_symop_operation_xyz
   'x, y, z'

loop_
   _atom_site_label
   _atom_site_occupancy
   _atom_site_fract_x
   _atom_site_fract_y
   _atom_site_fract_z
   _atom_site_adp_type
   _atom_site_B_iso_or_equiv
   _atom_site_type_symbol
   Si1        1.0     0.289858      0.378024      0.700537     Biso  1.000000 Si
   C1         1.0     0.451325      0.473958      0.552100     Biso  1.000000 C
   C2         1.0     0.426030      0.518403      0.496292     Biso  1.000000 C
   C3         1.0     0.353567      0.537403      0.490165     Biso  1.000000 C
   H1         1.0     0.320958      0.520891      0.525404     Biso  1.000000 H
   C4         1.0     0.327845      0.579211      0.434817     Biso  1.000000 C
   C5         1.0     0.254072      0.598125      0.428510     Biso  1.000000 C
   H2         1.0     0.220968      0.581939      0.463571     Biso  1.000000 H
   C6         1.0     0.230545      0.638617      0.373516     Biso  1.000000 C
   H3         1.0     0.181348      0.650984      0.370569     Biso  1.000000 H
   C7         1.0     0.278840      0.662934      0.320126     Biso  1.000000 C
   H4         1.0     0.261482      0.691032      0.281512     Biso  1.000000 H
   C8         1.0     0.348934      0.646614      0.323575     Biso  1.000000 C
   H5         1.0     0.380357      0.663624      0.287428     Biso  1.000000 H
   C9         1.0     0.376825      0.604030      0.380776     Biso  1.000000 C
   C10        1.0     0.448506      0.586673      0.386472     Biso  1.000000 C
   H6         1.0     0.480764      0.603929      0.351165     Biso  1.000000 H
   C11        1.0     0.524551      0.455708      0.557369     Biso  1.000000 C
   C12        1.0     0.401145      0.445528      0.602826     Biso  1.000000 C
   C13        1.0     0.357953      0.419832      0.643230     Biso  1.000000 C
   C14        1.0     0.307765      0.278880      0.702530     Biso  1.000000 C
   H7         1.0     0.270580      0.256436      0.733721     Biso  1.000000 H
   C15        1.0     0.301641      0.244587      0.627914     Biso  1.000000 C
   H8         1.0     0.334471      0.268669      0.594849     Biso  1.000000 H
   H9         1.0     0.252477      0.249509      0.610447     Biso  1.000000 H
   H10        1.0     0.314082      0.193740      0.630971     Biso  1.000000 H
   C16        1.0     0.380954      0.262309      0.735513     Biso  1.000000 C
   H11        1.0     0.388956      0.210471      0.735194     Biso  1.000000 H
   H12        1.0     0.382255      0.279843      0.784890     Biso  1.000000 H
   H13        1.0     0.418489      0.285925      0.707630     Biso  1.000000 H
   C17        1.0     0.301628      0.416633      0.792466     Biso  1.000000 C
   H14        1.0     0.352356      0.406513      0.806170     Biso  1.000000 H
   C18        1.0     0.255499      0.381340      0.850110     Biso  1.000000 C
   H15        1.0     0.270619      0.398334      0.897330     Biso  1.000000 H
   H16        1.0     0.261162      0.329305      0.847637     Biso  1.000000 H
   H17        1.0     0.205232      0.393857      0.842286     Biso  1.000000 H
   C19        1.0     0.293628      0.497991      0.795125     Biso  1.000000 C
   H18        1.0     0.244045      0.511027      0.784169     Biso  1.000000 H
   H19        1.0     0.325629      0.519858      0.759886     Biso  1.000000 H
   H20        1.0     0.306077      0.515215      0.843008     Biso  1.000000 H
   C20        1.0     0.200440      0.396633      0.659109     Biso  1.000000 C
   H21        1.0     0.203719      0.370942      0.612273     Biso  1.000000 H
   C21        1.0     0.141132      0.357906      0.695960     Biso  1.000000 C
   H22        1.0     0.157272      0.309856      0.709409     Biso  1.000000 H
   H23        1.0     0.100000      0.354141      0.663710     Biso  1.000000 H
   H24        1.0     0.127160      0.384277      0.739050     Biso  1.000000 H
   C22        1.0     0.185362      0.470075      0.637222     Biso  1.000000 C
   H25        1.0     0.228398      0.491166      0.615880     Biso  1.000000 H
   H26        1.0     0.171008      0.498179      0.679077     Biso  1.000000 H
   H27        1.0     0.146555      0.470209      0.601971     Biso  1.000000 H
   C23        1.0     0.475449      0.544293      0.442631     Biso  1.000000 C
   C24        1.0     0.548675      0.526042      0.447901     Biso  1.000000 C
   C25        1.0     0.573970      0.481597      0.503708     Biso  1.000000 C
   C26        1.0     0.646433      0.462597      0.509835     Biso  1.000000 C
   H28        1.0     0.679041      0.479109      0.474597     Biso  1.000000 H
   C27        1.0     0.672154      0.420789      0.565184     Biso  1.000000 C
   C28        1.0     0.745928      0.401875      0.571490     Biso  1.000000 C
   H29        1.0     0.779032      0.418061      0.536429     Biso  1.000000 H
   C29        1.0     0.769455      0.361383      0.626484     Biso  1.000000 C
   H30        1.0     0.818651      0.349016      0.629431     Biso  1.000000 H
   C30        1.0     0.721159      0.337066      0.679874     Biso  1.000000 C
   H31        1.0     0.738518      0.308968      0.718489     Biso  1.000000 H
   C31        1.0     0.651066      0.353386      0.676426     Biso  1.000000 C
   H32        1.0     0.619643      0.336376      0.712572     Biso  1.000000 H
   C32        1.0     0.623174      0.395975      0.619224     Biso  1.000000 C
   C33        1.0     0.551494      0.413327      0.613528     Biso  1.000000 C
   H33        1.0     0.519236      0.396071      0.648835     Biso  1.000000 H
   C34        1.0     0.598854      0.554472      0.397175     Biso  1.000000 C
   C35        1.0     0.642046      0.580168      0.356771     Biso  1.000000 C
   Si2        1.0     0.710145      0.621976      0.299466     Biso  1.000000 Si
   C36        1.0     0.692234      0.721125      0.297470     Biso  1.000000 C
   H34        1.0     0.729420      0.743564      0.266280     Biso  1.000000 H
   C37        1.0     0.698358      0.755413      0.372086     Biso  1.000000 C
   H35        1.0     0.665529      0.731331      0.405151     Biso  1.000000 H
   H36        1.0     0.747523      0.750491      0.389553     Biso  1.000000 H
   H37        1.0     0.685918      0.806260      0.369030     Biso  1.000000 H
   C38        1.0     0.619045      0.737697      0.264487     Biso  1.000000 C
   H38        1.0     0.611049      0.789528      0.264810     Biso  1.000000 H
   H39        1.0     0.617744      0.720157      0.215110     Biso  1.000000 H
   H40        1.0     0.581511      0.714075      0.292371     Biso  1.000000 H
   C39        1.0     0.698376      0.583367      0.207537     Biso  1.000000 C
   H41        1.0     0.647644      0.593487      0.193830     Biso  1.000000 H
   C40        1.0     0.744505      0.618660      0.149894     Biso  1.000000 C
   H42        1.0     0.729380      0.601666      0.102670     Biso  1.000000 H
   H43        1.0     0.738838      0.670695      0.152364     Biso  1.000000 H
   H44        1.0     0.794768      0.606143      0.157715     Biso  1.000000 H
   C41        1.0     0.706372      0.502009      0.204876     Biso  1.000000 C
   H45        1.0     0.755954      0.488973      0.215831     Biso  1.000000 H
   H46        1.0     0.674370      0.480142      0.240114     Biso  1.000000 H
   H47        1.0     0.693922      0.484785      0.156992     Biso  1.000000 H
   C42        1.0     0.799560      0.603367      0.340892     Biso  1.000000 C
   H48        1.0     0.796281      0.629058      0.387727     Biso  1.000000 H
   C43        1.0     0.858868      0.642094      0.304041     Biso  1.000000 C
   H49        1.0     0.842728      0.690144      0.290591     Biso  1.000000 H
   H50        1.0     0.900000      0.645859      0.336290     Biso  1.000000 H
   H51        1.0     0.872839      0.615728      0.260951     Biso  1.000000 H
   C44        1.0     0.814637      0.529925      0.362779     Biso  1.000000 C
   H52        1.0     0.771602      0.508839      0.384120     Biso  1.000000 H
   H53        1.0     0.828992      0.501821      0.320923     Biso  1.000000 H
   H54        1.0     0.853445      0.529791      0.398030     Biso  1.000000 H
