#======================================================================

# CRYSTAL DATA

#----------------------------------------------------------------------

data_VESTA_phase_1


_chemical_name_common                  '²tp://www.chemtube3d.com/polymer/mode'
_cell_length_a                         36.78225
_cell_length_b                         36.78225
_cell_length_c                         36.78225
_cell_angle_alpha                      90
_cell_angle_beta                       90
_cell_angle_gamma                      90
_space_group_name_H-M_alt              'P 1'
_space_group_IT_number                 1

loop_
_space_group_symop_operation_xyz
   'x, y, z'

loop_
   _atom_site_label
   _atom_site_occupancy
   _atom_site_fract_x
   _atom_site_fract_y
   _atom_site_fract_z
   _atom_site_adp_type
   _atom_site_B_iso_or_equiv
   _atom_site_type_symbol
   C1         1.0     0.737465      0.409301      0.825179     Biso  1.000000 C
   C2         1.0     0.728784      0.396409      0.859663     Biso  1.000000 C
   C3         1.0     0.711572      0.360308      0.868322     Biso  1.000000 C
   C4         1.0     0.738884      0.422446      0.887105     Biso  1.000000 C
   C5         1.0     0.754530      0.452871      0.872408     Biso  1.000000 C
   S1         1.0     0.757657      0.451324      0.826628     Biso  1.000000 S
   C6         1.0     0.739240      0.329187      0.868314     Biso  1.000000 C
   C7         1.0     0.721050      0.292843      0.876981     Biso  1.000000 C
   C8         1.0     0.748386      0.261836      0.876752     Biso  1.000000 C
   Br1        1.0     0.770954      0.492007      0.900000     Biso  1.000000 Br
   C9         1.0     0.732074      0.391589      0.790760     Biso  1.000000 C
   C10        1.0     0.758426      0.376236      0.769008     Biso  1.000000 C
   C11        1.0     0.743982      0.359943      0.736524     Biso  1.000000 C
   C12        1.0     0.706526      0.364489      0.734839     Biso  1.000000 C
   C13        1.0     0.767431      0.340393      0.709245     Biso  1.000000 C
   S2         1.0     0.689953      0.387405      0.771908     Biso  1.000000 S
   C14        1.0     0.764899      0.299039      0.712940     Biso  1.000000 C
   C15        1.0     0.788963      0.279894      0.685000     Biso  1.000000 C
   C16        1.0     0.786358      0.238768      0.688403     Biso  1.000000 C
   C17        1.0     0.681705      0.351882      0.707296     Biso  1.000000 C
   C18        1.0     0.654401      0.326574      0.711599     Biso  1.000000 C
   C19        1.0     0.634886      0.319141      0.678543     Biso  1.000000 C
   C20        1.0     0.604803      0.291451      0.676324     Biso  1.000000 C
   C21        1.0     0.648229      0.340176      0.650151     Biso  1.000000 C
   S3         1.0     0.683156      0.367863      0.663821     Biso  1.000000 S
   C22        1.0     0.617410      0.255659      0.659248     Biso  1.000000 C
   C23        1.0     0.586368      0.228089      0.657345     Biso  1.000000 C
   C24        1.0     0.598697      0.192585      0.640165     Biso  1.000000 C
   C25        1.0     0.637044      0.340246      0.612658     Biso  1.000000 C
   C26        1.0     0.657595      0.329725      0.583149     Biso  1.000000 C
   C27        1.0     0.638222      0.331617      0.549257     Biso  1.000000 C
   C28        1.0     0.654857      0.319929      0.513713     Biso  1.000000 C
   C29        1.0     0.603115      0.344569      0.554670     Biso  1.000000 C
   S4         1.0     0.594809      0.354125      0.599575     Biso  1.000000 S
   C30        1.0     0.640880      0.282835      0.500998     Biso  1.000000 C
   C31        1.0     0.658226      0.271749      0.464912     Biso  1.000000 C
   C32        1.0     0.644211      0.235054      0.452045     Biso  1.000000 C
   C33        1.0     0.574506      0.349387      0.528310     Biso  1.000000 C
   C34        1.0     0.540813      0.332917      0.528576     Biso  1.000000 C
   C35        1.0     0.518786      0.342038      0.497578     Biso  1.000000 C
   C36        1.0     0.536999      0.366172      0.474909     Biso  1.000000 C
   C37        1.0     0.481651      0.325919      0.491436     Biso  1.000000 C
   S5         1.0     0.579000      0.377506      0.491713     Biso  1.000000 S
   C38        1.0     0.481926      0.295741      0.462773     Biso  1.000000 C
   C39        1.0     0.443919      0.279921      0.457170     Biso  1.000000 C
   C40        1.0     0.444003      0.250081      0.428577     Biso  1.000000 C
   C41        1.0     0.525414      0.380793      0.440458     Biso  1.000000 C
   C42        1.0     0.542409      0.376060      0.407355     Biso  1.000000 C
   C43        1.0     0.523400      0.392804      0.377620     Biso  1.000000 C
   C44        1.0     0.536055      0.389863      0.338789     Biso  1.000000 C
   C45        1.0     0.492390      0.410511      0.389933     Biso  1.000000 C
   S6         1.0     0.487404      0.406944      0.436146     Biso  1.000000 S
   C46        1.0     0.514909      0.361080      0.317423     Biso  1.000000 C
   C47        1.0     0.528424      0.358478      0.278203     Biso  1.000000 C
   C48        1.0     0.507444      0.329967      0.256861     Biso  1.000000 C
   C49        1.0     0.465290      0.429458      0.368961     Biso  1.000000 C
   C50        1.0     0.429297      0.419752      0.364973     Biso  1.000000 C
   C51        1.0     0.409394      0.443573      0.341247     Biso  1.000000 C
   C52        1.0     0.370035      0.437608      0.331658     Biso  1.000000 C
   C53        1.0     0.431622      0.471326      0.328529     Biso  1.000000 C
   S7         1.0     0.474988      0.468112      0.345317     Biso  1.000000 S
   C54        1.0     0.365392      0.419616      0.294414     Biso  1.000000 C
   C55        1.0     0.325245      0.413798      0.285386     Biso  1.000000 C
   C56        1.0     0.320503      0.396132      0.248327     Biso  1.000000 C
   C57        1.0     0.422609      0.500052      0.303560     Biso  1.000000 C
   C58        1.0     0.435771      0.504423      0.268739     Biso  1.000000 C
   C59        1.0     0.420785      0.535468      0.250344     Biso  1.000000 C
   C60        1.0     0.430083      0.545065      0.211668     Biso  1.000000 C
   C61        1.0     0.396890      0.554045      0.272915     Biso  1.000000 C
   S8         1.0     0.393038      0.533916      0.314778     Biso  1.000000 S
   C62        1.0     0.401259      0.531692      0.184807     Biso  1.000000 C
   C63        1.0     0.411340      0.541506      0.145710     Biso  1.000000 C
   C64        1.0     0.382729      0.528361      0.118933     Biso  1.000000 C
   C65        1.0     0.375859      0.585990      0.264846     Biso  1.000000 C
   C66        1.0     0.338623      0.588023      0.260964     Biso  1.000000 C
   C67        1.0     0.325968      0.624025      0.252593     Biso  1.000000 C
   C68        1.0     0.354854      0.648267      0.250899     Biso  1.000000 C
   C69        1.0     0.286427      0.633083      0.247188     Biso  1.000000 C
   S9         1.0     0.395702      0.627526      0.259297     Biso  1.000000 S
   C70        1.0     0.268785      0.648033      0.281778     Biso  1.000000 C
   C71        1.0     0.228663      0.656934      0.275628     Biso  1.000000 C
   C72        1.0     0.211037      0.671898      0.309897     Biso  1.000000 C
   C73        1.0     0.353484      0.686522      0.242751     Biso  1.000000 C
   C74        1.0     0.343308      0.702299      0.210243     Biso  1.000000 C
   C75        1.0     0.344373      0.741404      0.211016     Biso  1.000000 C
   C76        1.0     0.355553      0.753021      0.244912     Biso  1.000000 C
   Br2        1.0     0.361096      0.801626      0.258653     Biso  1.000000 Br
   C77        1.0     0.334570      0.764698      0.178891     Biso  1.000000 C
   S10        1.0     0.364372      0.718698      0.274440     Biso  1.000000 S
   C78        1.0     0.367776      0.774290      0.155693     Biso  1.000000 C
   C79        1.0     0.357143      0.797831      0.123131     Biso  1.000000 C
   C80        1.0     0.390007      0.807415      0.100000     Biso  1.000000 C
